docs/ieee8500_v42_aemo_voltage_rebuild/ac/TIME_VARIABLE_NO_PV/VOLTAGE_VIOLATIONS.csv
stage,slot,node,voltage_pu,violation
TIME_VARIABLE_NO_PV,8,190-8593.1,1.0500518795032292,over
TIME_VARIABLE_NO_PV,9,190-8593.1,1.050051879503449,over
TIME_VARIABLE_NO_PV,38,q14734.1,1.0500191156471372,over
TIME_VARIABLE_NO_PV,38,d5587291-3_int.1,1.050027053616069,over
TIME_VARIABLE_NO_PV,38,190-8581.1,1.0500350647549794,over
TIME_VARIABLE_NO_PV,39,q14734.1,1.0500191156300198,over
TIME_VARIABLE_NO_PV,39,d5587291-3_int.1,1.0500270535989547,over
TIME_VARIABLE_NO_PV,39,190-8581.1,1.0500350647378833,over
TIME_VARIABLE_NO_PV,88,m1069519.1,1.0500847762395327,over
TIME_VARIABLE_NO_PV,88,n1136354.1,1.050016290038508,over
TIME_VARIABLE_NO_PV,88,l2897793.1,1.0505347395611155,over
TIME_VARIABLE_NO_PV,88,m1069521.1,1.0505251545663132,over
TIME_VARIABLE_NO_PV,88,d5534969-2_int.1,1.0502037434770926,over
TIME_VARIABLE_NO_PV,88,e182729.1,1.0501959842097157,over
TIME_VARIABLE_NO_PV,88,n1134477.1,1.0501757541013836,over
TIME_VARIABLE_NO_PV,88,m1047733.1,1.0504068226708765,over
TIME_VARIABLE_NO_PV,88,l3066804.1,1.0503955726053165,over
TIME_VARIABLE_NO_PV,88,l2691967.1,1.0501471658401247,over
TIME_VARIABLE_NO_PV,88,m1047711.1,1.0504778486566295,over
TIME_VARIABLE_NO_PV,88,m1047718.1,1.0504647424656945,over
TIME_VARIABLE_NO_PV,88,l2785538.1,1.0505611616564958,over
TIME_VARIABLE_NO_PV,88,l3254231.1,1.0505231237326094,over
TIME_VARIABLE_NO_PV,88,m1047723.1,1.0504421338321654,over
TIME_VARIABLE_NO_PV,88,m1047729.1,1.0504281612573365,over
TIME_VARIABLE_NO_PV,88,l3066814.1,1.0501580999259672,over
TIME_VARIABLE_NO_PV,88,n1134476.1,1.0501089134660138,over
TIME_VARIABLE_NO_PV,88,l2748144.1,1.0500112443922323,over
TIME_VARIABLE_NO_PV,88,m1069524.1,1.050492363281594,over
TIME_VARIABLE_NO_PV,88,m1069503.1,1.0502054225717257,over
TIME_VARIABLE_NO_PV,88,n1136367.1,1.0507648195230874,over
TIME_VARIABLE_NO_PV,88,m1069515.1,1.050699025454274,over
TIME_VARIABLE_NO_PV,88,m1047721.1,1.0504565297197366,over
TIME_VARIABLE_NO_PV,88,m1069509.1,1.0503189300362024,over
TIME_VARIABLE_NO_PV,88,l2766738.1,1.0504343452253726,over
TIME_VARIABLE_NO_PV,88,l3254230.1,1.0504920885372997,over
TIME_VARIABLE_NO_PV,88,n1136365.1,1.050763469167792,over
TIME_VARIABLE_NO_PV,88,m1069517.1,1.050813944616005,over
TIME_VARIABLE_NO_PV,88,m1069513.1,1.0505278395240176,over
TIME_VARIABLE_NO_PV,88,m1069505.1,1.0502656013699956,over
TIME_VARIABLE_NO_PV,88,m1069499.1,1.0500672875090493,over
TIME_VARIABLE_NO_PV,88,l2820533.1,1.0504879576994253,over
TIME_VARIABLE_NO_PV,88,m1069516.1,1.050676525941103,over
TIME_VARIABLE_NO_PV,88,e206211.1,1.0501627112464966,over
TIME_VARIABLE_NO_PV,88,n1134480.1,1.0500935776997478,over
TIME_VARIABLE_NO_PV,88,n1134478.1,1.0502464729343703,over
TIME_VARIABLE_NO_PV,88,n1136366.1,1.0508137216271591,over
TIME_VARIABLE_NO_PV,88,l2916620.1,1.050813695626368,over
TIME_VARIABLE_NO_PV,88,n1134479.1,1.0501923452246502,over
TIME_VARIABLE_NO_PV,88,m1069514.1,1.0506209575699579,over
TIME_VARIABLE_NO_PV,88,d6290228-6_int.1,1.050527334677267,over
TIME_VARIABLE_NO_PV,88,q16642.1,1.0505204203340779,over
TIME_VARIABLE_NO_PV,88,n1136657.1,1.0506034219722926,over
TIME_VARIABLE_NO_PV,88,r42246.1,1.0505070283262778,over
TIME_VARIABLE_NO_PV,88,l2897792.1,1.0506085949134127,over
TIME_VARIABLE_NO_PV,88,n1136368.1,1.0506125659587813,over
TIME_VARIABLE_NO_PV,88,m1069518.1,1.0508138115103405,over
TIME_VARIABLE_NO_PV,88,l2973150.1,1.0504170750848174,over
TIME_VARIABLE_NO_PV,88,p827548.1,1.0506168830647307,over
TIME_VARIABLE_NO_PV,88,d5682346-3_int.1,1.0501630851920924,over
TIME_VARIABLE_NO_PV,88,q16642_cap.1,1.0505135062457025,over
TIME_VARIABLE_NO_PV,89,l2748143.1,1.0501371927746377,over
TIME_VARIABLE_NO_PV,89,l3251854.1,1.0501323329123489,over
TIME_VARIABLE_NO_PV,89,m1069519.1,1.0503067033528042,over
TIME_VARIABLE_NO_PV,89,n1136354.1,1.050238229651499,over
TIME_VARIABLE_NO_PV,89,l2897793.1,1.0507690918939792,over
TIME_VARIABLE_NO_PV,89,m1069521.1,1.0507595089028856,over
TIME_VARIABLE_NO_PV,89,d5534969-2_int.1,1.0504254088931262,over
TIME_VARIABLE_NO_PV,89,e182729.1,1.0504177322408217,over
TIME_VARIABLE_NO_PV,89,n1134477.1,1.050396953566841,over
TIME_VARIABLE_NO_PV,89,m1047733.1,1.0506412015365563,over
TIME_VARIABLE_NO_PV,89,l3066804.1,1.050629953769738,over
TIME_VARIABLE_NO_PV,89,m1069496.1,1.050015000992849,over
TIME_VARIABLE_NO_PV,89,m1069533.1,1.0501826304344954,over
TIME_VARIABLE_NO_PV,89,n1136356.1,1.0501779896182486,over
TIME_VARIABLE_NO_PV,89,l3197652.1,1.0501416128057761,over
TIME_VARIABLE_NO_PV,89,m1069556.1,1.0501714904347317,over
TIME_VARIABLE_NO_PV,89,l2691967.1,1.050386637599421,over
TIME_VARIABLE_NO_PV,89,m1069504.1,1.0500012871413686,over
TIME_VARIABLE_NO_PV,89,m1047711.1,1.0507122128758573,over
TIME_VARIABLE_NO_PV,89,m1047718.1,1.050699109403357,over
TIME_VARIABLE_NO_PV,89,l2785538.1,1.050795508468038,over
TIME_VARIABLE_NO_PV,89,m1069564.1,1.0501612276744896,over
TIME_VARIABLE_NO_PV,89,n1136361.1,1.0501602994203445,over
TIME_VARIABLE_NO_PV,89,l3254231.1,1.0507574784852534,over
TIME_VARIABLE_NO_PV,89,m1047723.1,1.05067650544158,over
TIME_VARIABLE_NO_PV,89,m1047729.1,1.0506625357428738,over
TIME_VARIABLE_NO_PV,89,l3066814.1,1.050379005306526,over
TIME_VARIABLE_NO_PV,89,l3104144.1,1.0501601172728556,over
TIME_VARIABLE_NO_PV,89,n1134476.1,1.0503289961798215,over
TIME_VARIABLE_NO_PV,89,l2748144.1,1.050233184925365,over
TIME_VARIABLE_NO_PV,89,n1136363.1,1.050161234588891,over
TIME_VARIABLE_NO_PV,89,r18245.1,1.0501612407073297,over
TIME_VARIABLE_NO_PV,89,m1069524.1,1.0507267244810108,over
TIME_VARIABLE_NO_PV,89,m1069503.1,1.0504273276287663,over
TIME_VARIABLE_NO_PV,89,n1136367.1,1.050995369334586,over
TIME_VARIABLE_NO_PV,89,m1069515.1,1.0509313043733477,over
TIME_VARIABLE_NO_PV,89,m1047721.1,1.0506908983570236,over
TIME_VARIABLE_NO_PV,89,n1134475.1,1.0500891978785747,over
TIME_VARIABLE_NO_PV,89,m1069509.1,1.0505422033160408,over
TIME_VARIABLE_NO_PV,89,l2766738.1,1.0506590066060923,over
TIME_VARIABLE_NO_PV,89,m1069563.1,1.0501558105991369,over
TIME_VARIABLE_NO_PV,89,n1136360.1,1.0501541325201806,over
TIME_VARIABLE_NO_PV,89,m1069497.1,1.0501307681866674,over
TIME_VARIABLE_NO_PV,89,l3254230.1,1.050726449794396,over
TIME_VARIABLE_NO_PV,89,e182746.1,1.0501612416387398,over
TIME_VARIABLE_NO_PV,89,n1136365.1,1.0509921202883703,over
TIME_VARIABLE_NO_PV,89,m1069517.1,1.0510432053139718,over
TIME_VARIABLE_NO_PV,89,p901933.1,1.0501588326704334,over
TIME_VARIABLE_NO_PV,89,m1069513.1,1.0507536369269925,over
TIME_VARIABLE_NO_PV,89,m1069505.1,1.05048823220384,over
TIME_VARIABLE_NO_PV,89,m1069498.1,1.0501638465770746,over
TIME_VARIABLE_NO_PV,89,m1069499.1,1.050286673115239,over
TIME_VARIABLE_NO_PV,89,m1069549.1,1.0501769776493848,over
TIME_VARIABLE_NO_PV,89,l2820533.1,1.0507223197974591,over
TIME_VARIABLE_NO_PV,89,n1136362.1,1.0501499796468634,over
TIME_VARIABLE_NO_PV,89,m1069516.1,1.0509041256432103,over
TIME_VARIABLE_NO_PV,89,e206211.1,1.0503846241218098,over
TIME_VARIABLE_NO_PV,89,n1134480.1,1.0503155032062907,over
TIME_VARIABLE_NO_PV,89,n1134478.1,1.0504688731657215,over
TIME_VARIABLE_NO_PV,89,n1136366.1,1.0510429823781458,over
TIME_VARIABLE_NO_PV,89,l2916620.1,1.0510429563834465,over
TIME_VARIABLE_NO_PV,89,n1134479.1,1.050414252674691,over
TIME_VARIABLE_NO_PV,89,m1069514.1,1.0508552920085605,over
TIME_VARIABLE_NO_PV,89,l2729424.1,1.0501521937483707,over
TIME_VARIABLE_NO_PV,89,d6290228-6_int.1,1.050764604279725,over
TIME_VARIABLE_NO_PV,89,q16642.1,1.0507577720783396,over
TIME_VARIABLE_NO_PV,89,n1136657.1,1.0508383054062014,over
TIME_VARIABLE_NO_PV,89,m1069495.1,1.0501498386270594,over
TIME_VARIABLE_NO_PV,89,r42246.1,1.0507446657080481,over
TIME_VARIABLE_NO_PV,89,l2897792.1,1.0508429319035884,over
TIME_VARIABLE_NO_PV,89,n1136368.1,1.05084690212941,over
TIME_VARIABLE_NO_PV,89,m1069518.1,1.051043072240124,over
TIME_VARIABLE_NO_PV,89,l3160114.1,1.050158136370344,over
TIME_VARIABLE_NO_PV,89,l2973150.1,1.050651451846328,over
TIME_VARIABLE_NO_PV,89,p827548.1,1.050851218344337,over
TIME_VARIABLE_NO_PV,89,d5682346-3_int.1,1.050384997993904,over
TIME_VARIABLE_NO_PV,89,q16642_cap.1,1.0507509401305313,over
TIME_VARIABLE_NO_PV,89,sx2785538a.2,1.050094481268719,over
